Version 4
SHEET 1 1636 680
WIRE 1072 -336 912 -336
WIRE 304 -304 -16 -304
WIRE 480 -304 304 -304
WIRE 880 -304 480 -304
WIRE 912 -304 912 -336
WIRE 912 -304 880 -304
WIRE 960 -304 912 -304
WIRE 304 -272 304 -304
WIRE 480 -272 480 -304
WIRE 880 -208 880 -304
WIRE 1008 -208 880 -208
WIRE 384 -160 176 -160
WIRE 480 -160 480 -192
WIRE 480 -160 384 -160
WIRE 528 -160 480 -160
WIRE 880 -144 880 -208
WIRE 1008 -144 1008 -208
WIRE 384 -128 384 -160
WIRE 176 -112 176 -160
WIRE 528 -96 528 -160
WIRE 176 -16 176 -48
WIRE 624 0 288 0
WIRE 704 0 624 0
WIRE 880 0 880 -64
WIRE 1008 0 1008 -64
WIRE 1008 0 880 0
WIRE 384 16 384 -48
WIRE 592 48 560 48
WIRE 704 48 704 0
WIRE 704 48 672 48
WIRE 528 64 528 -96
WIRE 176 80 176 48
WIRE 288 80 288 0
WIRE 336 80 288 80
WIRE 608 96 592 96
WIRE 704 96 656 96
WIRE -16 112 -16 -304
WIRE 880 128 880 0
WIRE 960 128 880 128
WIRE 880 144 880 128
WIRE 528 160 528 144
WIRE 560 160 560 48
WIRE 560 160 528 160
WIRE 176 176 176 144
WIRE 384 176 384 80
WIRE 448 176 384 176
WIRE 528 176 528 160
WIRE 528 176 448 176
WIRE 528 208 528 176
WIRE 592 208 592 96
WIRE 592 208 528 208
WIRE 608 208 592 208
WIRE 704 208 704 96
WIRE 704 208 688 208
WIRE 720 208 704 208
WIRE 832 208 784 208
WIRE 528 224 528 208
WIRE 528 224 464 224
WIRE -16 304 -16 192
WIRE 176 304 176 240
WIRE 176 304 -16 304
WIRE 528 304 528 288
WIRE 528 304 176 304
WIRE 576 304 528 304
WIRE 880 304 880 208
WIRE 880 304 576 304
WIRE -16 320 -16 304
WIRE 464 336 464 224
WIRE 464 336 432 336
WIRE 496 336 464 336
WIRE 576 336 576 304
WIRE 640 336 576 336
WIRE 432 368 432 336
WIRE 576 368 576 336
WIRE 496 384 496 336
WIRE 640 384 640 336
WIRE 496 512 496 448
WIRE 640 512 640 448
WIRE 640 512 496 512
WIRE 656 512 640 512
WIRE 832 512 736 512
WIRE 832 544 832 512
WIRE 1072 544 1072 -336
WIRE 1072 544 832 544
WIRE 432 608 432 432
WIRE 576 608 576 432
WIRE 576 608 432 608
WIRE 656 608 576 608
WIRE 832 608 832 544
WIRE 832 608 736 608
FLAG -16 320 0
FLAG 960 -304 A
FLAG 960 128 B
FLAG 448 176 VT
FLAG 624 0 VTx
FLAG 528 -96 VREF
SYMBOL misc\\DIAC 784 176 R90
WINDOW 0 0 32 VBottom 2
WINDOW 3 64 32 VTop 2
WINDOW 123 92 32 VTop 2
SYMATTR InstName Q1
SYMATTR Value DB3TG
SYMATTR Value2 VK=30
SYMBOL voltage -16 96 R0
WINDOW 0 10 -1 Left 2
WINDOW 3 9 103 Left 2
WINDOW 123 0 0 Left 2
WINDOW 39 0 0 Left 2
SYMATTR InstName V1
SYMATTR Value SINE(0 311 50)
SYMBOL res 512 160 M180
WINDOW 0 36 76 Left 2
WINDOW 3 36 40 Left 2
SYMATTR InstName R1
SYMATTR Value 70k
SYMBOL cap 512 224 R0
SYMATTR InstName C1
SYMATTR Value 0.1µ
SYMBOL res 864 -160 R0
WINDOW 0 36 23 Left 2
WINDOW 3 45 83 Left 2
SYMATTR InstName Rload
SYMATTR Value 5k
SYMBOL misc\\TRIAC 848 144 R0
SYMATTR InstName U1
SYMATTR Value Q4025R5
SYMBOL res 704 192 R90
WINDOW 0 0 56 VBottom 2
WINDOW 3 32 56 VTop 2
SYMATTR InstName R2
SYMATTR Value 1k
SYMBOL res 368 -32 M180
WINDOW 0 36 76 Left 2
WINDOW 3 36 40 Left 2
SYMATTR InstName R3
SYMATTR Value 4.7k
SYMBOL res 464 -176 M180
WINDOW 0 36 76 Left 2
WINDOW 3 36 40 Left 2
SYMATTR InstName R4
SYMATTR Value 10k
SYMBOL zener 160 -112 R0
SYMATTR InstName D1
SYMATTR Value DFLZ33
SYMBOL zener 192 48 R180
WINDOW 0 24 64 Left 2
WINDOW 3 24 0 Left 2
SYMATTR InstName D2
SYMATTR Value DFLZ33
SYMBOL zener 160 80 R0
SYMATTR InstName D3
SYMATTR Value DFLZ33
SYMBOL zener 192 240 R180
WINDOW 0 24 64 Left 2
WINDOW 3 24 0 Left 2
SYMATTR InstName D4
SYMATTR Value DFLZ33
SYMBOL ind 992 -160 R0
SYMATTR InstName L1
SYMATTR Value 1
SYMBOL diode 416 368 R0
SYMATTR InstName D5
SYMATTR Value MUR460
SYMBOL diode 512 448 R180
WINDOW 0 24 64 Left 2
WINDOW 3 24 0 Left 2
SYMATTR InstName D6
SYMATTR Value MUR460
SYMBOL diode 560 368 R0
SYMATTR InstName D7
SYMATTR Value MUR460
SYMBOL diode 656 448 R180
WINDOW 0 24 64 Left 2
WINDOW 3 24 0 Left 2
SYMATTR InstName D8
SYMATTR Value MUR460
SYMBOL res 752 592 R90
WINDOW 0 0 56 VBottom 2
WINDOW 3 32 56 VTop 2
SYMATTR InstName R5
SYMATTR Value 47k
SYMBOL res 752 496 R90
WINDOW 0 0 56 VBottom 2
WINDOW 3 32 56 VTop 2
SYMATTR InstName R6
SYMATTR Value 47k
SYMBOL misc\\TRIAC 352 16 R0
SYMATTR InstName U2
SYMATTR Value L4006L5
SYMBOL cap 288 -272 R0
SYMATTR InstName C2
SYMATTR Value 1n
SYMBOL e 688 48 M270
SYMATTR InstName E1
SYMATTR Value 1
TEXT -144 -72 Left 2 !.tran .05
TEXT -456 -16 Left 2 !.subckt DIAC T1 T2\n* default parameters\n.param RS=10 ; series resistance\n.param VK=20 ; breakdown voltage\nQ1 N002 N001 T2 0 PN\nQ2 N001 N002 N005 0 NP\nR1 N002 N004 {20K*(VK-1)}\nR2 N004 T2 9.5K\nR3 N002 N005 9.5K\nQ3 N004 N003 N005 0 PN\nQ4 N003 N004 T2 0 NP\nR4 T1 N005 {RS}\n.model PN NPN Cjc=10p Cje=10p\n.model NP PNP Cjc=10p Cje=10p\n.ends DIAC
TEXT -512 432 Left 2 ;This example schematic is supplied for informational/educational purposes only.
TEXT -456 -448 Left 2 !.include Thyristor_TRIAC_Qxx25xx_Qxx25x_Hx_A_SPICE_Model_txt.lib
TEXT 832 336 Left 2 ;symbol "triac_st"
TEXT -456 -368 Left 2 !.include diacs_pspice.lib
TEXT -456 -408 Left 2 !.include SPICELittelfuseTRIACLxx06xxQxx06xxQxx06xHxAlibhtm.lib
