**********************************
**********************************
**
** Littelfuse, LP
** TRIAC SPICE Models
** Qxx25xx-Qxx25xHx
**
** T. Chenoski
** Irving Technical Center
**
** A 06/08/08
**
**********************************
**********************************
.SUBCKT Q4025R5    1    2         3
*       TERMINALS: MT2  G         MT1
Qnpn1   5          4    3         NoutF   OFF
Qpnp1   4          5    7         PoutF   OFF
Qnpn2   11         6    7         NoutR   OFF
Qpnp2   6          11   3         PoutR   OFF
Dfor    4          5    DZ        OFF
Drev    6          11   DZ        OFF
Rfor    4          6    12MEG
Ron     1          7    10m
Rhold   7          6    50
RGP     8          3    13
RG      2          8    5.8
RS      8          4    100
DN      9          2    DIN       OFF
RN      9          3    6.12
GNN     6          7    9         3       1.1
GNP     4          5    9         3       0.521
DP      2          10   DIP       OFF
RP      10         3    3.56
GP      7          6    10        3       0.1
.MODEL  DIN        D    (IS=382F)
.MODEL  DIP        D    (IS=382F  N=1.19)
.MODEL  DZ         D    (IS=382F  N=1.5   IBV=50U  BV=400)
.MODEL  PoutF      PNP  (IS=382F  BF=1    CJE=380p TF=0.3U)
.MODEL  NoutF      NPN  (IS=382F  BF=3    CJE=380p CJC=76p  TF=0.3U)
.MODEL  PoutR      PNP  (IS=382F  BF=5    CJE=380p TF=0.3U)
.MODEL  NoutR      NPN  (IS=382F  BF=0.5  CJE=380p CJC=76p  TF=0.3U)
.ENDS

.SUBCKT Q4025N5    1    2         3
*       TERMINALS: MT2  G         MT1
Qnpn1   5          4    3         NoutF   OFF
Qpnp1   4          5    7         PoutF   OFF
Qnpn2   11         6    7         NoutR   OFF
Qpnp2   6          11   3         PoutR   OFF
Dfor    4          5    DZ        OFF
Drev    6          11   DZ        OFF
Rfor    4          6    12MEG
Ron     1          7    10m
Rhold   7          6    50
RGP     8          3    13
RG      2          8    5.8
RS      8          4    100
DN      9          2    DIN       OFF
RN      9          3    6.12
GNN     6          7    9         3       1.1
GNP     4          5    9         3       0.521
DP      2          10   DIP       OFF
RP      10         3    3.56
GP      7          6    10        3       0.1
.MODEL  DIN        D    (IS=382F)
.MODEL  DIP        D    (IS=382F  N=1.19)
.MODEL  DZ         D    (IS=382F  N=1.5   IBV=50U  BV=400)
.MODEL  PoutF      PNP  (IS=382F  BF=1    CJE=380p TF=0.3U)
.MODEL  NoutF      NPN  (IS=382F  BF=3    CJE=380p CJC=76p  TF=0.3U)
.MODEL  PoutR      PNP  (IS=382F  BF=5    CJE=380p TF=0.3U)
.MODEL  NoutR      NPN  (IS=382F  BF=0.5  CJE=380p CJC=76p  TF=0.3U)
.ENDS

.SUBCKT Q6025P5    1    2         3
*       TERMINALS: MT2  G         MT1
Qnpn1   5          4    3         NoutF   OFF
Qpnp1   4          5    7         PoutF   OFF
Qnpn2   11         6    7         NoutR   OFF
Qpnp2   6          11   3         PoutR   OFF
Dfor    4          5    DZ        OFF
Drev    6          11   DZ        OFF
Rfor    4          6    12MEG
Ron     1          7    10m
Rhold   7          6    50
RGP     8          3    13
RG      2          8    5.8
RS      8          4    100
DN      9          2    DIN       OFF
RN      9          3    6.12
GNN     6          7    9         3       1.1
GNP     4          5    9         3       0.521
DP      2          10   DIP       OFF
RP      10         3    3.56
GP      7          6    10        3       0.1
.MODEL  DIN        D    (IS=382F)
.MODEL  DIP        D    (IS=382F  N=1.19)
.MODEL  DZ         D    (IS=382F  N=1.5   IBV=50U  BV=600)
.MODEL  PoutF      PNP  (IS=382F  BF=1    CJE=380p TF=0.3U)
.MODEL  NoutF      NPN  (IS=382F  BF=3    CJE=380p CJC=76p  TF=0.3U)
.MODEL  PoutR      PNP  (IS=382F  BF=5    CJE=380p TF=0.3U)
.MODEL  NoutR      NPN  (IS=382F  BF=0.5  CJE=380p CJC=76p  TF=0.3U)
.ENDS

.SUBCKT Q6025R5    1    2         3
*       TERMINALS: MT2  G         MT1
Qnpn1   5          4    3         NoutF   OFF
Qpnp1   4          5    7         PoutF   OFF
Qnpn2   11         6    7         NoutR   OFF
Qpnp2   6          11   3         PoutR   OFF
Dfor    4          5    DZ        OFF
Drev    6          11   DZ        OFF
Rfor    4          6    12MEG
Ron     1          7    10m
Rhold   7          6    50
RGP     8          3    13
RG      2          8    5.8
RS      8          4    100
DN      9          2    DIN       OFF
RN      9          3    6.12
GNN     6          7    9         3       1.1
GNP     4          5    9         3       0.521
DP      2          10   DIP       OFF
RP      10         3    3.56
GP      7          6    10        3       0.1
.MODEL  DIN        D    (IS=382F)
.MODEL  DIP        D    (IS=382F  N=1.19)
.MODEL  DZ         D    (IS=382F  N=1.5   IBV=50U  BV=600)
.MODEL  PoutF      PNP  (IS=382F  BF=1    CJE=380p TF=0.3U)
.MODEL  NoutF      NPN  (IS=382F  BF=3    CJE=380p CJC=76p  TF=0.3U)
.MODEL  PoutR      PNP  (IS=382F  BF=5    CJE=380p TF=0.3U)
.MODEL  NoutR      NPN  (IS=382F  BF=0.5  CJE=380p CJC=76p  TF=0.3U)
.ENDS

.SUBCKT Q6025N5    1    2         3
*       TERMINALS: MT2  G         MT1
Qnpn1   5          4    3         NoutF   OFF
Qpnp1   4          5    7         PoutF   OFF
Qnpn2   11         6    7         NoutR   OFF
Qpnp2   6          11   3         PoutR   OFF
Dfor    4          5    DZ        OFF
Drev    6          11   DZ        OFF
Rfor    4          6    12MEG
Ron     1          7    10m
Rhold   7          6    50
RGP     8          3    13
RG      2          8    5.8
RS      8          4    100
DN      9          2    DIN       OFF
RN      9          3    6.12
GNN     6          7    9         3       1.1
GNP     4          5    9         3       0.521
DP      2          10   DIP       OFF
RP      10         3    3.56
GP      7          6    10        3       0.1
.MODEL  DIN        D    (IS=382F)
.MODEL  DIP        D    (IS=382F  N=1.19)
.MODEL  DZ         D    (IS=382F  N=1.5   IBV=50U  BV=600)
.MODEL  PoutF      PNP  (IS=382F  BF=1    CJE=380p TF=0.3U)
.MODEL  NoutF      NPN  (IS=382F  BF=3    CJE=380p CJC=76p  TF=0.3U)
.MODEL  PoutR      PNP  (IS=382F  BF=5    CJE=380p TF=0.3U)
.MODEL  NoutR      NPN  (IS=382F  BF=0.5  CJE=380p CJC=76p  TF=0.3U)
.ENDS

.SUBCKT Q8025P5    1    2         3
*       TERMINALS: MT2  G         MT1
Qnpn1   5          4    3         NoutF   OFF
Qpnp1   4          5    7         PoutF   OFF
Qnpn2   11         6    7         NoutR   OFF
Qpnp2   6          11   3         PoutR   OFF
Dfor    4          5    DZ        OFF
Drev    6          11   DZ        OFF
Rfor    4          6    12MEG
Ron     1          7    10m
Rhold   7          6    50
RGP     8          3    13
RG      2          8    5.8
RS      8          4    100
DN      9          2    DIN       OFF
RN      9          3    6.12
GNN     6          7    9         3       1.1
GNP     4          5    9         3       0.521
DP      2          10   DIP       OFF
RP      10         3    3.56
GP      7          6    10        3       0.1
.MODEL  DIN        D    (IS=382F)
.MODEL  DIP        D    (IS=382F  N=1.19)
.MODEL  DZ         D    (IS=382F  N=1.5   IBV=50U  BV=800)
.MODEL  PoutF      PNP  (IS=382F  BF=1    CJE=380p TF=0.3U)
.MODEL  NoutF      NPN  (IS=382F  BF=3    CJE=380p CJC=76p  TF=0.3U)
.MODEL  PoutR      PNP  (IS=382F  BF=5    CJE=380p TF=0.3U)
.MODEL  NoutR      NPN  (IS=382F  BF=0.5  CJE=380p CJC=76p  TF=0.3U)
.ENDS

.SUBCKT Q8025R5    1    2         3
*       TERMINALS: MT2  G         MT1
Qnpn1   5          4    3         NoutF   OFF
Qpnp1   4          5    7         PoutF   OFF
Qnpn2   11         6    7         NoutR   OFF
Qpnp2   6          11   3         PoutR   OFF
Dfor    4          5    DZ        OFF
Drev    6          11   DZ        OFF
Rfor    4          6    12MEG
Ron     1          7    10m
Rhold   7          6    50
RGP     8          3    13
RG      2          8    5.8
RS      8          4    100
DN      9          2    DIN       OFF
RN      9          3    6.12
GNN     6          7    9         3       1.1
GNP     4          5    9         3       0.521
DP      2          10   DIP       OFF
RP      10         3    3.56
GP      7          6    10        3       0.1
.MODEL  DIN        D    (IS=382F)
.MODEL  DIP        D    (IS=382F  N=1.19)
.MODEL  DZ         D    (IS=382F  N=1.5   IBV=50U  BV=800)
.MODEL  PoutF      PNP  (IS=382F  BF=1    CJE=380p TF=0.3U)
.MODEL  NoutF      NPN  (IS=382F  BF=3    CJE=380p CJC=76p  TF=0.3U)
.MODEL  PoutR      PNP  (IS=382F  BF=5    CJE=380p TF=0.3U)
.MODEL  NoutR      NPN  (IS=382F  BF=0.5  CJE=380p CJC=76p  TF=0.3U)
.ENDS

.SUBCKT Q8025N5    1    2         3
*       TERMINALS: MT2  G         MT1
Qnpn1   5          4    3         NoutF   OFF
Qpnp1   4          5    7         PoutF   OFF
Qnpn2   11         6    7         NoutR   OFF
Qpnp2   6          11   3         PoutR   OFF
Dfor    4          5    DZ        OFF
Drev    6          11   DZ        OFF
Rfor    4          6    12MEG
Ron     1          7    10m
Rhold   7          6    50
RGP     8          3    13
RG      2          8    5.8
RS      8          4    100
DN      9          2    DIN       OFF
RN      9          3    6.12
GNN     6          7    9         3       1.1
GNP     4          5    9         3       0.521
DP      2          10   DIP       OFF
RP      10         3    3.56
GP      7          6    10        3       0.1
.MODEL  DIN        D    (IS=382F)
.MODEL  DIP        D    (IS=382F  N=1.19)
.MODEL  DZ         D    (IS=382F  N=1.5   IBV=50U  BV=800)
.MODEL  PoutF      PNP  (IS=382F  BF=1    CJE=380p TF=0.3U)
.MODEL  NoutF      NPN  (IS=382F  BF=3    CJE=380p CJC=76p  TF=0.3U)
.MODEL  PoutR      PNP  (IS=382F  BF=5    CJE=380p TF=0.3U)
.MODEL  NoutR      NPN  (IS=382F  BF=0.5  CJE=380p CJC=76p  TF=0.3U)
.ENDS

.SUBCKT QK025R5    1    2         3
*       TERMINALS: MT2  G         MT1
Qnpn1   5          4    3         NoutF   OFF
Qpnp1   4          5    7         PoutF   OFF
Qnpn2   11         6    7         NoutR   OFF
Qpnp2   6          11   3         PoutR   OFF
Dfor    4          5    DZ        OFF
Drev    6          11   DZ        OFF
Rfor    4          6    12MEG
Ron     1          7    10m
Rhold   7          6    50
RGP     8          3    13
RG      2          8    5.8
RS      8          4    100
DN      9          2    DIN       OFF
RN      9          3    6.12
GNN     6          7    9         3       1.1
GNP     4          5    9         3       0.521
DP      2          10   DIP       OFF
RP      10         3    3.56
GP      7          6    10        3       0.1
.MODEL  DIN        D    (IS=382F)
.MODEL  DIP        D    (IS=382F  N=1.19)
.MODEL  DZ         D    (IS=382F  N=1.5   IBV=50U  BV=1000)
.MODEL  PoutF      PNP  (IS=382F  BF=1    CJE=380p TF=0.3U)
.MODEL  NoutF      NPN  (IS=382F  BF=3    CJE=380p CJC=76p  TF=0.3U)
.MODEL  PoutR      PNP  (IS=382F  BF=5    CJE=380p TF=0.3U)
.MODEL  NoutR      NPN  (IS=382F  BF=0.5  CJE=380p CJC=76p  TF=0.3U)
.ENDS

.SUBCKT QK025N5    1    2         3
*       TERMINALS: MT2  G         MT1
Qnpn1   5          4    3         NoutF   OFF
Qpnp1   4          5    7         PoutF   OFF
Qnpn2   11         6    7         NoutR   OFF
Qpnp2   6          11   3         PoutR   OFF
Dfor    4          5    DZ        OFF
Drev    6          11   DZ        OFF
Rfor    4          6    12MEG
Ron     1          7    10m
Rhold   7          6    50
RGP     8          3    13
RG      2          8    5.8
RS      8          4    100
DN      9          2    DIN       OFF
RN      9          3    6.12
GNN     6          7    9         3       1.1
GNP     4          5    9         3       0.521
DP      2          10   DIP       OFF
RP      10         3    3.56
GP      7          6    10        3       0.1
.MODEL  DIN        D    (IS=382F)
.MODEL  DIP        D    (IS=382F  N=1.19)
.MODEL  DZ         D    (IS=382F  N=1.5   IBV=50U  BV=1000)
.MODEL  PoutF      PNP  (IS=382F  BF=1    CJE=380p TF=0.3U)
.MODEL  NoutF      NPN  (IS=382F  BF=3    CJE=380p CJC=76p  TF=0.3U)
.MODEL  PoutR      PNP  (IS=382F  BF=5    CJE=380p TF=0.3U)
.MODEL  NoutR      NPN  (IS=382F  BF=0.5  CJE=380p CJC=76p  TF=0.3U)
.ENDS

.SUBCKT Q4025LH5   1    2         3
*       TERMINALS: MT2  G         MT1
Qnpn1   5          4    3         NoutF   OFF
Qpnp1   4          5    7         PoutF   OFF
Qnpn2   11         6    7         NoutR   OFF
Qpnp2   6          11   3         PoutR   OFF
Dfor    4          5    DZ        OFF
Drev    6          11   DZ        OFF
Rfor    4          6    12MEG
Ron     1          7    10m
Rhold   7          6    50
RGP     8          3    13
RG      2          8    5.8
RS      8          4    100
DN      9          2    DIN       OFF
RN      9          3    6.12
GNN     6          7    9         3       1.1
GNP     4          5    9         3       0.521
DP      2          10   DIP       OFF
RP      10         3    3.56
.MODEL  DIN        D    (IS=382F)
.MODEL  DIP        D    (IS=382F  N=1.19)
.MODEL  DZ         D    (IS=382F  N=1.5   IBV=50U  BV=400)
.MODEL  PoutF      PNP  (IS=382F  BF=1    CJE=380p TF=0.3U)
.MODEL  NoutF      NPN  (IS=382F  BF=3    CJE=380p CJC=76p  TF=0.3U)
.MODEL  PoutR      PNP  (IS=382F  BF=5    CJE=380p TF=0.3U)
.MODEL  NoutR      NPN  (IS=382F  BF=0.5  CJE=380p CJC=76p  TF=0.3U)
.ENDS

.SUBCKT Q4025RH5   1    2         3
*       TERMINALS: MT2  G         MT1
Qnpn1   5          4    3         NoutF   OFF
Qpnp1   4          5    7         PoutF   OFF
Qnpn2   11         6    7         NoutR   OFF
Qpnp2   6          11   3         PoutR   OFF
Dfor    4          5    DZ        OFF
Drev    6          11   DZ        OFF
Rfor    4          6    12MEG
Ron     1          7    10m
Rhold   7          6    50
RGP     8          3    13
RG      2          8    5.8
RS      8          4    100
DN      9          2    DIN       OFF
RN      9          3    6.12
GNN     6          7    9         3       1.1
GNP     4          5    9         3       0.521
DP      2          10   DIP       OFF
RP      10         3    3.56
.MODEL  DIN        D    (IS=382F)
.MODEL  DIP        D    (IS=382F  N=1.19)
.MODEL  DZ         D    (IS=382F  N=1.5   IBV=50U  BV=400)
.MODEL  PoutF      PNP  (IS=382F  BF=1    CJE=380p TF=0.3U)
.MODEL  NoutF      NPN  (IS=382F  BF=3    CJE=380p CJC=76p  TF=0.3U)
.MODEL  PoutR      PNP  (IS=382F  BF=5    CJE=380p TF=0.3U)
.MODEL  NoutR      NPN  (IS=382F  BF=0.5  CJE=380p CJC=76p  TF=0.3U)
.ENDS

.SUBCKT Q4025NH5   1    2         3
*       TERMINALS: MT2  G         MT1
Qnpn1   5          4    3         NoutF   OFF
Qpnp1   4          5    7         PoutF   OFF
Qnpn2   11         6    7         NoutR   OFF
Qpnp2   6          11   3         PoutR   OFF
Dfor    4          5    DZ        OFF
Drev    6          11   DZ        OFF
Rfor    4          6    12MEG
Ron     1          7    10m
Rhold   7          6    50
RGP     8          3    13
RG      2          8    5.8
RS      8          4    100
DN      9          2    DIN       OFF
RN      9          3    6.12
GNN     6          7    9         3       1.1
GNP     4          5    9         3       0.521
DP      2          10   DIP       OFF
RP      10         3    3.56
.MODEL  DIN        D    (IS=382F)
.MODEL  DIP        D    (IS=382F  N=1.19)
.MODEL  DZ         D    (IS=382F  N=1.5   IBV=50U  BV=400)
.MODEL  PoutF      PNP  (IS=382F  BF=1    CJE=380p TF=0.3U)
.MODEL  NoutF      NPN  (IS=382F  BF=3    CJE=380p CJC=76p  TF=0.3U)
.MODEL  PoutR      PNP  (IS=382F  BF=5    CJE=380p TF=0.3U)
.MODEL  NoutR      NPN  (IS=382F  BF=0.5  CJE=380p CJC=76p  TF=0.3U)
.ENDS

.SUBCKT Q6025LH5   1    2         3
*       TERMINALS: MT2  G         MT1
Qnpn1   5          4    3         NoutF   OFF
Qpnp1   4          5    7         PoutF   OFF
Qnpn2   11         6    7         NoutR   OFF
Qpnp2   6          11   3         PoutR   OFF
Dfor    4          5    DZ        OFF
Drev    6          11   DZ        OFF
Rfor    4          6    12MEG
Ron     1          7    10m
Rhold   7          6    50
RGP     8          3    13
RG      2          8    5.8
RS      8          4    100
DN      9          2    DIN       OFF
RN      9          3    6.12
GNN     6          7    9         3       1.1
GNP     4          5    9         3       0.521
DP      2          10   DIP       OFF
RP      10         3    3.56
.MODEL  DIN        D    (IS=382F)
.MODEL  DIP        D    (IS=382F  N=1.19)
.MODEL  DZ         D    (IS=382F  N=1.5   IBV=50U  BV=600)
.MODEL  PoutF      PNP  (IS=382F  BF=1    CJE=380p TF=0.3U)
.MODEL  NoutF      NPN  (IS=382F  BF=3    CJE=380p CJC=76p  TF=0.3U)
.MODEL  PoutR      PNP  (IS=382F  BF=5    CJE=380p TF=0.3U)
.MODEL  NoutR      NPN  (IS=382F  BF=0.5  CJE=380p CJC=76p  TF=0.3U)
.ENDS

.SUBCKT Q6025RH5   1    2         3
*       TERMINALS: MT2  G         MT1
Qnpn1   5          4    3         NoutF   OFF
Qpnp1   4          5    7         PoutF   OFF
Qnpn2   11         6    7         NoutR   OFF
Qpnp2   6          11   3         PoutR   OFF
Dfor    4          5    DZ        OFF
Drev    6          11   DZ        OFF
Rfor    4          6    12MEG
Ron     1          7    10m
Rhold   7          6    50
RGP     8          3    13
RG      2          8    5.8
RS      8          4    100
DN      9          2    DIN       OFF
RN      9          3    6.12
GNN     6          7    9         3       1.1
GNP     4          5    9         3       0.521
DP      2          10   DIP       OFF
RP      10         3    3.56
.MODEL  DIN        D    (IS=382F)
.MODEL  DIP        D    (IS=382F  N=1.19)
.MODEL  DZ         D    (IS=382F  N=1.5   IBV=50U  BV=600)
.MODEL  PoutF      PNP  (IS=382F  BF=1    CJE=380p TF=0.3U)
.MODEL  NoutF      NPN  (IS=382F  BF=3    CJE=380p CJC=76p  TF=0.3U)
.MODEL  PoutR      PNP  (IS=382F  BF=5    CJE=380p TF=0.3U)
.MODEL  NoutR      NPN  (IS=382F  BF=0.5  CJE=380p CJC=76p  TF=0.3U)
.ENDS

.SUBCKT Q6025NH5   1    2         3
*       TERMINALS: MT2  G         MT1
Qnpn1   5          4    3         NoutF   OFF
Qpnp1   4          5    7         PoutF   OFF
Qnpn2   11         6    7         NoutR   OFF
Qpnp2   6          11   3         PoutR   OFF
Dfor    4          5    DZ        OFF
Drev    6          11   DZ        OFF
Rfor    4          6    12MEG
Ron     1          7    10m
Rhold   7          6    50
RGP     8          3    13
RG      2          8    5.8
RS      8          4    100
DN      9          2    DIN       OFF
RN      9          3    6.12
GNN     6          7    9         3       1.1
GNP     4          5    9         3       0.521
DP      2          10   DIP       OFF
RP      10         3    3.56
.MODEL  DIN        D    (IS=382F)
.MODEL  DIP        D    (IS=382F  N=1.19)
.MODEL  DZ         D    (IS=382F  N=1.5   IBV=50U  BV=600)
.MODEL  PoutF      PNP  (IS=382F  BF=1    CJE=380p TF=0.3U)
.MODEL  NoutF      NPN  (IS=382F  BF=3    CJE=380p CJC=76p  TF=0.3U)
.MODEL  PoutR      PNP  (IS=382F  BF=5    CJE=380p TF=0.3U)
.MODEL  NoutR      NPN  (IS=382F  BF=0.5  CJE=380p CJC=76p  TF=0.3U)
.ENDS

.SUBCKT Q8025LH5   1    2         3
*       TERMINALS: MT2  G         MT1
Qnpn1   5          4    3         NoutF   OFF
Qpnp1   4          5    7         PoutF   OFF
Qnpn2   11         6    7         NoutR   OFF
Qpnp2   6          11   3         PoutR   OFF
Dfor    4          5    DZ        OFF
Drev    6          11   DZ        OFF
Rfor    4          6    12MEG
Ron     1          7    10m
Rhold   7          6    50
RGP     8          3    13
RG      2          8    5.8
RS      8          4    100
DN      9          2    DIN       OFF
RN      9          3    6.12
GNN     6          7    9         3       1.1
GNP     4          5    9         3       0.521
DP      2          10   DIP       OFF
RP      10         3    3.56
.MODEL  DIN        D    (IS=382F)
.MODEL  DIP        D    (IS=382F  N=1.19)
.MODEL  DZ         D    (IS=382F  N=1.5   IBV=50U  BV=800)
.MODEL  PoutF      PNP  (IS=382F  BF=1    CJE=380p TF=0.3U)
.MODEL  NoutF      NPN  (IS=382F  BF=3    CJE=380p CJC=76p  TF=0.3U)
.MODEL  PoutR      PNP  (IS=382F  BF=5    CJE=380p TF=0.3U)
.MODEL  NoutR      NPN  (IS=382F  BF=0.5  CJE=380p CJC=76p  TF=0.3U)
.ENDS

.SUBCKT Q8025RH5   1    2         3
*       TERMINALS: MT2  G         MT1
Qnpn1   5          4    3         NoutF   OFF
Qpnp1   4          5    7         PoutF   OFF
Qnpn2   11         6    7         NoutR   OFF
Qpnp2   6          11   3         PoutR   OFF
Dfor    4          5    DZ        OFF
Drev    6          11   DZ        OFF
Rfor    4          6    12MEG
Ron     1          7    10m
Rhold   7          6    50
RGP     8          3    13
RG      2          8    5.8
RS      8          4    100
DN      9          2    DIN       OFF
RN      9          3    6.12
GNN     6          7    9         3       1.1
GNP     4          5    9         3       0.521
DP      2          10   DIP       OFF
RP      10         3    3.56
.MODEL  DIN        D    (IS=382F)
.MODEL  DIP        D    (IS=382F  N=1.19)
.MODEL  DZ         D    (IS=382F  N=1.5   IBV=50U  BV=800)
.MODEL  PoutF      PNP  (IS=382F  BF=1    CJE=380p TF=0.3U)
.MODEL  NoutF      NPN  (IS=382F  BF=3    CJE=380p CJC=76p  TF=0.3U)
.MODEL  PoutR      PNP  (IS=382F  BF=5    CJE=380p TF=0.3U)
.MODEL  NoutR      NPN  (IS=382F  BF=0.5  CJE=380p CJC=76p  TF=0.3U)
.ENDS

.SUBCKT Q8025NH5   1    2         3
*       TERMINALS: MT2  G         MT1
Qnpn1   5          4    3         NoutF   OFF
Qpnp1   4          5    7         PoutF   OFF
Qnpn2   11         6    7         NoutR   OFF
Qpnp2   6          11   3         PoutR   OFF
Dfor    4          5    DZ        OFF
Drev    6          11   DZ        OFF
Rfor    4          6    12MEG
Ron     1          7    10m
Rhold   7          6    50
RGP     8          3    13
RG      2          8    5.8
RS      8          4    100
DN      9          2    DIN       OFF
RN      9          3    6.12
GNN     6          7    9         3       1.1
GNP     4          5    9         3       0.521
DP      2          10   DIP       OFF
RP      10         3    3.56
.MODEL  DIN        D    (IS=382F)
.MODEL  DIP        D    (IS=382F  N=1.19)
.MODEL  DZ         D    (IS=382F  N=1.5   IBV=50U  BV=800)
.MODEL  PoutF      PNP  (IS=382F  BF=1    CJE=380p TF=0.3U)
.MODEL  NoutF      NPN  (IS=382F  BF=3    CJE=380p CJC=76p  TF=0.3U)
.MODEL  PoutR      PNP  (IS=382F  BF=5    CJE=380p TF=0.3U)
.MODEL  NoutR      NPN  (IS=382F  BF=0.5  CJE=380p CJC=76p  TF=0.3U)
.ENDS

.SUBCKT Q4025L6    1    2         3
*       TERMINALS: MT2  G         MT1
Qnpn1   5          4    3         NoutF   OFF
Qpnp1   4          5    7         PoutF   OFF
Qnpn2   11         6    7         NoutR   OFF
Qpnp2   6          11   3         PoutR   OFF
Dfor    4          5    DZ        OFF
Drev    6          11   DZ        OFF
Rfor    4          6    12MEG
Ron     1          7    10m
Rhold   7          6    50
RGP     8          3    12
RG      2          8    5.8
RS      8          4    100
DN      9          2    DIN       OFF
RN      9          3    4
GNN     6          7    9         3       0.1
GNP     4          5    9         3       0.1
DP      2          10   DIP       OFF
RP      10         3    3.56
.MODEL  DIN        D    (IS=382F)
.MODEL  DIP        D    (IS=382F  N=1.19)
.MODEL  DZ         D    (IS=382F  N=1.5   IBV=50U  BV=400)
.MODEL  PoutF      PNP  (IS=382F  BF=0.5  CJE=380p TF=0.3U)
.MODEL  NoutF      NPN  (IS=382F  BF=3    CJE=380p CJC=76p  TF=0.3U)
.MODEL  PoutR      PNP  (IS=382F  BF=3    CJE=380p TF=0.3U)
.MODEL  NoutR      NPN  (IS=382F  BF=0.5  CJE=380p CJC=76p  TF=0.3U)
.ENDS

.SUBCKT Q4025R6    1    2         3
*       TERMINALS: MT2  G         MT1
Qnpn1   5          4    3         NoutF   OFF
Qpnp1   4          5    7         PoutF   OFF
Qnpn2   11         6    7         NoutR   OFF
Qpnp2   6          11   3         PoutR   OFF
Dfor    4          5    DZ        OFF
Drev    6          11   DZ        OFF
Rfor    4          6    12MEG
Ron     1          7    10m
Rhold   7          6    50
RGP     8          3    12
RG      2          8    5.8
RS      8          4    100
DN      9          2    DIN       OFF
RN      9          3    4
GNN     6          7    9         3       0.1
GNP     4          5    9         3       0.1
DP      2          10   DIP       OFF
RP      10         3    3.56
.MODEL  DIN        D    (IS=382F)
.MODEL  DIP        D    (IS=382F  N=1.19)
.MODEL  DZ         D    (IS=382F  N=1.5   IBV=50U  BV=400)
.MODEL  PoutF      PNP  (IS=382F  BF=0.5  CJE=380p TF=0.3U)
.MODEL  NoutF      NPN  (IS=382F  BF=3    CJE=380p CJC=76p  TF=0.3U)
.MODEL  PoutR      PNP  (IS=382F  BF=3    CJE=380p TF=0.3U)
.MODEL  NoutR      NPN  (IS=382F  BF=0.5  CJE=380p CJC=76p  TF=0.3U)
.ENDS

.SUBCKT Q4025NH6   1    2         3
*       TERMINALS: MT2  G         MT1
Qnpn1   5          4    3         NoutF   OFF
Qpnp1   4          5    7         PoutF   OFF
Qnpn2   11         6    7         NoutR   OFF
Qpnp2   6          11   3         PoutR   OFF
Dfor    4          5    DZ        OFF
Drev    6          11   DZ        OFF
Rfor    4          6    12MEG
Ron     1          7    10m
Rhold   7          6    50
RGP     8          3    12
RG      2          8    5.8
RS      8          4    100
DN      9          2    DIN       OFF
RN      9          3    4
GNN     6          7    9         3       0.1
GNP     4          5    9         3       0.1
DP      2          10   DIP       OFF
RP      10         3    3.56
.MODEL  DIN        D    (IS=382F)
.MODEL  DIP        D    (IS=382F  N=1.19)
.MODEL  DZ         D    (IS=382F  N=1.5   IBV=50U  BV=400)
.MODEL  PoutF      PNP  (IS=382F  BF=0.5  CJE=380p TF=0.3U)
.MODEL  NoutF      NPN  (IS=382F  BF=3    CJE=380p CJC=76p  TF=0.3U)
.MODEL  PoutR      PNP  (IS=382F  BF=3    CJE=380p TF=0.3U)
.MODEL  NoutR      NPN  (IS=382F  BF=0.5  CJE=380p CJC=76p  TF=0.3U)
.ENDS

.SUBCKT Q4025J6    1    2         3
*       TERMINALS: MT2  G         MT1
Qnpn1   5          4    3         NoutF   OFF
Qpnp1   4          5    7         PoutF   OFF
Qnpn2   11         6    7         NoutR   OFF
Qpnp2   6          11   3         PoutR   OFF
Dfor    4          5    DZ        OFF
Drev    6          11   DZ        OFF
Rfor    4          6    12MEG
Ron     1          7    10m
Rhold   7          6    50
RGP     8          3    12
RG      2          8    5.8
RS      8          4    100
DN      9          2    DIN       OFF
RN      9          3    4
GNN     6          7    9         3       0.1
GNP     4          5    9         3       0.1
DP      2          10   DIP       OFF
RP      10         3    3.56
.MODEL  DIN        D    (IS=382F)
.MODEL  DIP        D    (IS=382F  N=1.19)
.MODEL  DZ         D    (IS=382F  N=1.5   IBV=50U  BV=400)
.MODEL  PoutF      PNP  (IS=382F  BF=0.5  CJE=380p TF=0.3U)
.MODEL  NoutF      NPN  (IS=382F  BF=3    CJE=380p CJC=76p  TF=0.3U)
.MODEL  PoutR      PNP  (IS=382F  BF=3    CJE=380p TF=0.3U)
.MODEL  NoutR      NPN  (IS=382F  BF=0.5  CJE=380p CJC=76p  TF=0.3U)
.ENDS

.SUBCKT Q4025K6    1    2         3
*       TERMINALS: MT2  G         MT1
Qnpn1   5          4    3         NoutF   OFF
Qpnp1   4          5    7         PoutF   OFF
Qnpn2   11         6    7         NoutR   OFF
Qpnp2   6          11   3         PoutR   OFF
Dfor    4          5    DZ        OFF
Drev    6          11   DZ        OFF
Rfor    4          6    12MEG
Ron     1          7    10m
Rhold   7          6    50
RGP     8          3    12
RG      2          8    5.8
RS      8          4    100
DN      9          2    DIN       OFF
RN      9          3    4
GNN     6          7    9         3       0.1
GNP     4          5    9         3       0.1
DP      2          10   DIP       OFF
RP      10         3    3.56
.MODEL  DIN        D    (IS=382F)
.MODEL  DIP        D    (IS=382F  N=1.19)
.MODEL  DZ         D    (IS=382F  N=1.5   IBV=50U  BV=400)
.MODEL  PoutF      PNP  (IS=382F  BF=0.5  CJE=380p TF=0.3U)
.MODEL  NoutF      NPN  (IS=382F  BF=3    CJE=380p CJC=76p  TF=0.3U)
.MODEL  PoutR      PNP  (IS=382F  BF=3    CJE=380p TF=0.3U)
.MODEL  NoutR      NPN  (IS=382F  BF=0.5  CJE=380p CJC=76p  TF=0.3U)
.ENDS

.SUBCKT Q6025L6    1    2         3
*       TERMINALS: MT2  G         MT1
Qnpn1   5          4    3         NoutF   OFF
Qpnp1   4          5    7         PoutF   OFF
Qnpn2   11         6    7         NoutR   OFF
Qpnp2   6          11   3         PoutR   OFF
Dfor    4          5    DZ        OFF
Drev    6          11   DZ        OFF
Rfor    4          6    12MEG
Ron     1          7    10m
Rhold   7          6    50
RGP     8          3    12
RG      2          8    5.8
RS      8          4    100
DN      9          2    DIN       OFF
RN      9          3    4
GNN     6          7    9         3       0.1
GNP     4          5    9         3       0.1
DP      2          10   DIP       OFF
RP      10         3    3.56
.MODEL  DIN        D    (IS=382F)
.MODEL  DIP        D    (IS=382F  N=1.19)
.MODEL  DZ         D    (IS=382F  N=1.5   IBV=50U  BV=600)
.MODEL  PoutF      PNP  (IS=382F  BF=0.5  CJE=380p TF=0.3U)
.MODEL  NoutF      NPN  (IS=382F  BF=3    CJE=380p CJC=76p  TF=0.3U)
.MODEL  PoutR      PNP  (IS=382F  BF=3    CJE=380p TF=0.3U)
.MODEL  NoutR      NPN  (IS=382F  BF=0.5  CJE=380p CJC=76p  TF=0.3U)
.ENDS

.SUBCKT Q6025R6    1    2         3
*       TERMINALS: MT2  G         MT1
Qnpn1   5          4    3         NoutF   OFF
Qpnp1   4          5    7         PoutF   OFF
Qnpn2   11         6    7         NoutR   OFF
Qpnp2   6          11   3         PoutR   OFF